/*--------------------------------*- C++ -*----------------------------------*\
| =========                 |                                                 |
| \\      /  F ield         | OpenFOAM: The Open Source CFD Toolbox           |
|  \\    /   O peration     | Version:  v1906                                 |
|   \\  /    A nd           | Web:      www.OpenFOAM.com                      |
|    \\/     M anipulation  |                                                 |
\*---------------------------------------------------------------------------*/
FoamFile
{
    version     2.0;
    format      ascii;
    class       dictionary;
    object      blockMeshDict;
}
// * * * * * * * * * * * * * * * * * * * * * * * * * * * * * * * * * * * * * //

scale   1; // assumi di star moltiplicando per h anche

vertices
(
 ( 0.5 -0.5  -0.5) 
 (-0.5 -0.5  -0.5) 
 (-0.5  0.5  -0.5) 
 ( 0.5  0.5  -0.5) 
 ( 0.5 -0.5   0.5) 
 (-0.5 -0.5   0.5) 
 (-0.5  0.5   0.5) 
 ( 0.5  0.5   0.5) 
);


blocks
(
  hex (4 5  6  7 0 1 2 3) (15 15 15) simpleGrading (1 1 1)      
);

edges
(
);

boundary
(
 dirichlet
 {
    type wall;
    faces
    (
    (1 2 6 5)   // -e1
    (0 4 7 3)   //  e1
    (0 1 5 4)   // -e2  girata
    (2 3 7 6)   //  e2  girare
    (1 0 3 2)   // -e3
    (5 4 7 6)   //  e3  girare
    );
 }
);


// ************************************************************************* //
