/*--------------------------------*- C++ -*----------------------------------*\
| =========                 |                                                 |
| \\      /  F ield         | OpenFOAM: The Open Source CFD Toolbox           |
|  \\    /   O peration     | Version:  v1906                                 |
|   \\  /    A nd           | Web:      www.OpenFOAM.com                      |
|    \\/     M anipulation  |                                                 |
\*---------------------------------------------------------------------------*/
FoamFile
{
    version     2.0;
    format      ascii;
    class       dictionary;
    object      topoSetDict;
}
// * * * * * * * * * * * * * * * * * * * * * * * * * * * * * * * * * * * * * //

actions
(
  {
    name    wallRefinement;
    type    cellSet;
    action  new;
    source  boxToCell;
    sourceInfo
    {
      box (-0.05 -0.075 0) (0.15 0.075 0.15);  // [-2.5;15]x[-1;3]x[0;2] h
    }
  }
);
