/*--------------------------------*- C++ -*----------------------------------*\
| =========                 |                                                 |
| \\      /  F ield         | OpenFOAM: The Open Source CFD Toolbox           |
|  \\    /   O peration     | Version:  v2012                                 |
|   \\  /    A nd           | Website:  www.openfoam.com                      |
|    \\/     M anipulation  |                                                 |
\*---------------------------------------------------------------------------*/
FoamFile
{
    version     2.0;
    format      ascii;
    class       polyBoundaryMesh;
    location    "constant/polyMesh";
    object      boundary;
}
// * * * * * * * * * * * * * * * * * * * * * * * * * * * * * * * * * * * * * //

6
(
    back
    {
        type            patch;
        physicalType    patch;
        nFaces          0;
        startFace       5186;
    }
    front
    {
        type            patch;
        physicalType    patch;
        nFaces          288;
        startFace       5186;
    }
    left
    {
        type            patch;
        physicalType    patch;
        nFaces          110;
        startFace       5474;
    }
    top
    {
        type            patch;
        physicalType    patch;
        nFaces          110;
        startFace       5584;
    }
    right
    {
        type            patch;
        physicalType    patch;
        nFaces          110;
        startFace       5694;
    }
    bottom
    {
        type            patch;
        physicalType    patch;
        nFaces          110;
        startFace       5804;
    }
)

// ************************************************************************* //
